* netlist generated with vector fitting poles and residues

.subckt total_network node_1 node_2 node_3 node_4 node_ref
X_11 node_1 node_ref yp11
X_12 node_1 node_2 yp12
X_13 node_1 node_3 yp13
X_14 node_1 node_4 yp14
X_22 node_2 node_ref yp22
X_23 node_2 node_3 yp23
X_24 node_2 node_4 yp24
X_33 node_3 node_ref yp33
X_34 node_3 node_4 yp34
X_44 node_4 node_ref yp44
.ends


* Y'11
.subckt yp11 node_1 node_ref
* Branch 0
Rabr0 node_1 netRa0 1019.5086409595948
Lbr0 netRa0 netL0 1.7666142776744992e-07
Rbbr0 netL0 node_ref -197.5274565119536
Cbr0 netL0 node_ref 9.254922024746562e-13

* Branch 1
Rabr1 node_1 netRa1 -1461.7244879191398
Lbr1 netRa1 netL1 1.3330432121141119e-06
Rbbr1 netL1 node_ref -38046.92323675643
Cbr1 netL1 node_ref 1.8283307991714893e-14

* Branch 2
Rabr2 node_1 netRa2 24.235729720999508
Lbr2 netRa2 netL2 1.7825337242182876e-07
Rbbr2 netL2 node_ref -145808.3659864874
Cbr2 netL2 node_ref 1.4212847239721875e-13

* Branch 3
Rabr3 node_1 netRa3 41.2288276456704
Lbr3 netRa3 netL3 3.847071333987913e-07
Rbbr3 netL3 node_ref -21679.458849925693
Cbr3 netL3 node_ref 6.58659603468876e-14

* Branch 4
Rabr4 node_1 netRa4 -133.86328777920897
Lbr4 netRa4 netL4 2.5167302762380917e-07
Rbbr4 netL4 node_ref -3204.389551883395
Cbr4 netL4 node_ref 9.438874619745873e-14

* Branch 5
Rabr5 node_1 netRa5 -67118.42820570062
Lbr5 netRa5 netL5 3.285633153655026e-06
Rbbr5 netL5 node_ref -80621.06072223542
Cbr5 netL5 node_ref 4.362046050891356e-16

* Branch 6
Rabr6 node_1 netRa6 -12979.362978227513
Lbr6 netRa6 netL6 -2.984033700407258e-06
Rbbr6 netL6 node_ref -159853.1217332292
Cbr6 netL6 node_ref -1.9523301332220975e-15

* Branch 7
Rabr7 node_1 netRa7 8.320636551521098
Lbr7 netRa7 netL7 9.1288132070139e-08
Rbbr7 netL7 node_ref -34827.862277786444
Cbr7 netL7 node_ref 6.936967125319643e-14

* Branch 8
Rabr8 node_1 netRa8 24.716249057676055
Lbr8 netRa8 netL8 9.244064259689205e-08
Rbbr8 netL8 node_ref -4760.900255553137
Cbr8 netL8 node_ref 6.801646572955332e-14

* Branch 9
Rabr9 node_1 netRa9 683.3476830865044
Lbr9 netRa9 netL9 2.1950343237527242e-07
Rbbr9 netL9 node_ref 35034.86592871867
Cbr9 netL9 node_ref 1.2577346055400513e-14

* Branch 10
Rabr10 node_1 netRa10 -26.37796584651283
Lbr10 netRa10 netL10 5.974206365372397e-08
Rbbr10 netL10 node_ref -12566.746423558829
Cbr10 netL10 node_ref 4.6990039881431255e-14

* Branch 11
Rabr11 node_1 netRa11 -6100.774347545953
Lbr11 netRa11 netL11 -3.0778609219741427e-06
Rbbr11 netL11 node_ref 445842.6194710535
Cbr11 netL11 node_ref -5.356290379383056e-16

* Branch 12
Rabr12 node_1 netRa12 7670.559240469734
Lbr12 netRa12 netL12 9.988239779919354e-07
Rbbr12 netL12 node_ref 101931.55549203673
Cbr12 netL12 node_ref 1.4689394985549136e-15

* Branch 13
Rabr13 node_1 netRa13 -0.708841812375048
Lbr13 netRa13 netL13 3.9971163233651375e-08
Rbbr13 netL13 node_ref -15683.155190034424
Cbr13 netL13 node_ref 3.959783994475154e-14

* Branch 14
Rabr14 node_1 netRa14 3718.170231946571
Lbr14 netRa14 netL14 1.5527271011934648e-06
Rbbr14 netL14 node_ref 1543738.2984921318
Cbr14 netL14 node_ref 6.50169452562026e-16

* Branch 15
Rabr15 node_1 netRa15 -13.45156138419204
Lbr15 netRa15 netL15 3.394569179005267e-08
Rbbr15 netL15 node_ref -9853.489596117963
Cbr15 netL15 node_ref 2.9752975896587675e-14

* Branch 16
Rabr16 node_1 netRa16 -7.454793789419227
Lbr16 netRa16 netL16 9.624367778395192e-08
Rbbr16 netL16 node_ref -88962.47759269028
Cbr16 netL16 node_ref 7.312273775091523e-15

* Branch 17
Rabr17 node_1 netRa17 -250.24925291031326
Lbr17 netRa17 netL17 5.45170374213417e-08
Rbbr17 netL17 node_ref -9663.164902857188
Cbr17 netL17 node_ref 1.2468167730666732e-14

* Branch 18
Rabr18 node_1 netRa18 371.3040243462196
Lbr18 netRa18 netL18 1.2332205636415833e-08
Rbbr18 netL18 node_ref -516.6525134541523
Cbr18 netL18 node_ref 9.085708575877874e-14

* Branch 19
Rabr19 node_1 netRa19 -42.94757816236134
Lbr19 netRa19 netL19 7.186054054745924e-08
Rbbr19 netL19 node_ref -46666.4392101813
Cbr19 netL19 node_ref 7.187448290445781e-15

* Branch 20
Rabr20 node_1 netRa20 -2696.265596725878
Lbr20 netRa20 netL20 5.4148246381165245e-08
Rbbr20 netL20 node_ref -4614.755730212657
Cbr20 netL20 node_ref 3.724736640252133e-15

* Branch 21
Rabr21 node_1 netRa21 -373.5320034435647
Lbr21 netRa21 netL21 6.883274388317828e-08
Rbbr21 netL21 node_ref -20725.92389105796
Cbr21 netL21 node_ref 5.630037235937145e-15

* Branch 22
Rabr22 node_1 netRa22 126.33150651278649
Lbr22 netRa22 netL22 1.630396324756196e-08
Rbbr22 netL22 node_ref -7646.485123513112
Cbr22 netL22 node_ref 2.40676311164974e-14

* Branch 23
Rabr23 node_1 netRa23 87796.87367687559
Lbr23 netRa23 netL23 -6.035397745466925e-07
Rbbr23 netL23 node_ref 100504.98582246566
Cbr23 netL23 node_ref -6.561077863170135e-17

* Branch 24
Rabr24 node_1 netRa24 -77.3270105113985
Lbr24 netRa24 netL24 3.283496699416413e-08
Rbbr24 netL24 node_ref -20687.674519268905
Cbr24 netL24 node_ref 9.479905475564742e-15

.ends


* Y'12
.subckt yp12 node_1 node_2
* Branch 0
Rabr0 node_1 netRa0 -1860.8354455794627
Lbr0 netRa0 netL0 -2.829290628959974e-07
Rbbr0 netL0 node_2 425.1417295131353
Cbr0 netL0 node_2 -5.043117717297719e-13

* Branch 1
Rabr1 node_1 netRa1 -37.65479302274327
Lbr1 netRa1 netL1 -3.2433015793407737e-07
Rbbr1 netL1 node_2 56851.945071883565
Cbr1 netL1 node_2 -7.820118685330792e-14

* Branch 2
Rabr2 node_1 netRa2 -319.2672358827794
Lbr2 netRa2 netL2 -1.1484361081007304e-06
Rbbr2 netL2 node_2 -483740.9768089124
Cbr2 netL2 node_2 -2.204210650111845e-14

* Branch 3
Rabr3 node_1 netRa3 1420.3641638318604
Lbr3 netRa3 netL3 1.2478748845422532e-06
Rbbr3 netL3 node_2 150599.94699341693
Cbr3 netL3 node_2 2.007611429499794e-14

* Branch 4
Rabr4 node_1 netRa4 -6288.153445267598
Lbr4 netRa4 netL4 -1.6984211901391145e-06
Rbbr4 netL4 node_2 -80113.52669092224
Cbr4 netL4 node_2 -1.345066582058904e-14

* Branch 5
Rabr5 node_1 netRa5 -19059.61864984628
Lbr5 netRa5 netL5 -1.0748090317239185e-06
Rbbr5 netL5 node_2 -31974.381807873095
Cbr5 netL5 node_2 -3.2158246530513753e-15

* Branch 6
Rabr6 node_1 netRa6 41171.716014523605
Lbr6 netRa6 netL6 -5.249136740331452e-06
Rbbr6 netL6 node_2 133269.3326801185
Cbr6 netL6 node_2 -8.34764892366965e-16

* Branch 7
Rabr7 node_1 netRa7 -179009.84873316946
Lbr7 netRa7 netL7 2.246106342403787e-05
Rbbr7 netL7 node_2 -597628.5276816767
Cbr7 netL7 node_2 1.974409271007671e-16

* Branch 8
Rabr8 node_1 netRa8 -106.3698467956711
Lbr8 netRa8 netL8 -1.8900705037311493e-07
Rbbr8 netL8 node_2 10713.466699479342
Cbr8 netL8 node_2 -3.342264975024306e-14

* Branch 9
Rabr9 node_1 netRa9 -164688.30836977556
Lbr9 netRa9 netL9 5.4693443889411705e-06
Rbbr9 netL9 node_2 -227439.32835135877
Cbr9 netL9 node_2 1.4203808361899787e-16

* Branch 10
Rabr10 node_1 netRa10 27.11285404881788
Lbr10 netRa10 netL10 -1.3775247808700192e-07
Rbbr10 netL10 node_2 33826.66679001094
Cbr10 netL10 node_2 -2.0405673419146558e-14

* Branch 11
Rabr11 node_1 netRa11 33319.76954778219
Lbr11 netRa11 netL11 1.1900675282283603e-06
Rbbr11 netL11 node_2 66842.20598081908
Cbr11 netL11 node_2 6.853680267811288e-16

* Branch 12
Rabr12 node_1 netRa12 -256817352.30753395
Lbr12 netRa12 netL12 -0.0003666754465629314
Rbbr12 netL12 node_2 -257147791.01212874
Cbr12 netL12 node_2 -5.5602686817779826e-21

* Branch 13
Rabr13 node_1 netRa13 -32.37085881945417
Lbr13 netRa13 netL13 -1.1361908967883745e-07
Rbbr13 netL13 node_2 54862.684585252406
Cbr13 netL13 node_2 -1.3939358263027663e-14

* Branch 14
Rabr14 node_1 netRa14 45884.85290697195
Lbr14 netRa14 netL14 1.4121481676653972e-05
Rbbr14 netL14 node_2 7584689.2477583
Cbr14 netL14 node_2 7.122843326883737e-17

* Branch 15
Rabr15 node_1 netRa15 -25.493103783266765
Lbr15 netRa15 netL15 -1.099482735095784e-07
Rbbr15 netL15 node_2 39039.70924520441
Cbr15 netL15 node_2 -9.204568815385305e-15

* Branch 16
Rabr16 node_1 netRa16 15988.72427187776
Lbr16 netRa16 netL16 1.7084250350420756e-06
Rbbr16 netL16 node_2 323289.9642487844
Cbr16 netL16 node_2 3.91595065279799e-16

* Branch 17
Rabr17 node_1 netRa17 359.0285267867255
Lbr17 netRa17 netL17 -1.3078269828073616e-07
Rbbr17 netL17 node_2 29394.471647759474
Cbr17 netL17 node_2 -5.270388306200524e-15

* Branch 18
Rabr18 node_1 netRa18 -35507.681526097906
Lbr18 netRa18 netL18 -1.7192583396913497e-07
Rbbr18 netL18 node_2 -37207.77962725576
Cbr18 netL18 node_2 -1.7326286293166642e-16

* Branch 19
Rabr19 node_1 netRa19 -171487.47313678602
Lbr19 netRa19 netL19 1.0274714270402394e-05
Rbbr19 netL19 node_2 -1213476.2640570183
Cbr19 netL19 node_2 4.3204311660952656e-17

* Branch 20
Rabr20 node_1 netRa20 10252.049832673332
Lbr20 netRa20 netL20 -1.4438270388838074e-07
Rbbr20 netL20 node_2 14000.768591880498
Cbr20 netL20 node_2 -8.996734958094348e-16

* Branch 21
Rabr21 node_1 netRa21 287.65518298389344
Lbr21 netRa21 netL21 -7.276020156404963e-08
Rbbr21 netL21 node_2 26267.30691942779
Cbr21 netL21 node_2 -5.364492899899159e-15

* Branch 22
Rabr22 node_1 netRa22 -1117.4022519848384
Lbr22 netRa22 netL22 -1.3374866580654672e-07
Rbbr22 netL22 node_2 70649.9470176929
Cbr22 netL22 node_2 -2.9318082773320994e-15

* Branch 23
Rabr23 node_1 netRa23 -176013.7938886835
Lbr23 netRa23 netL23 1.7438700991893275e-06
Rbbr23 netL23 node_2 -228000.4473534987
Cbr23 netL23 node_2 4.0947716439552506e-17

* Branch 24
Rabr24 node_1 netRa24 108.9309860369615
Lbr24 netRa24 netL24 -6.592997137690573e-08
Rbbr24 netL24 node_2 48108.69092786519
Cbr24 netL24 node_2 -4.72824084150829e-15

.ends


* Y'13
.subckt yp13 node_1 node_3
* Branch 0
Rabr0 node_1 netRa0 -1944.9977231079529
Lbr0 netRa0 netL0 -3.2041161848934204e-07
Rbbr0 netL0 node_3 390.1274762941064
Cbr0 netL0 node_3 -4.957170864358547e-13

* Branch 1
Rabr1 node_1 netRa1 -783.5122862386611
Lbr1 netRa1 netL1 1.3913208477095765e-06
Rbbr1 netL1 node_3 -61494.06042191481
Cbr1 netL1 node_3 1.7985264021263132e-14

* Branch 2
Rabr2 node_1 netRa2 4799.378229677052
Lbr2 netRa2 netL2 -5.27601926116265e-06
Rbbr2 netL2 node_3 195210.27029866423
Cbr2 netL2 node_3 -4.683056689860749e-15

* Branch 3
Rabr3 node_1 netRa3 138.38065199000448
Lbr3 netRa3 netL3 -3.542126522543165e-07
Rbbr3 netL3 node_3 11827.625103097425
Cbr3 netL3 node_3 -7.05652614188815e-14

* Branch 4
Rabr4 node_1 netRa4 -1130.4343657608226
Lbr4 netRa4 netL4 -5.324893664143948e-07
Rbbr4 netL4 node_3 31842.552531243167
Cbr4 netL4 node_3 -4.820908158527804e-14

* Branch 5
Rabr5 node_1 netRa5 -38996.66773540508
Lbr5 netRa5 netL5 -1.0946926810186583e-06
Rbbr5 netL5 node_3 -43628.9653777177
Cbr5 netL5 node_3 -8.299820613103469e-16

* Branch 6
Rabr6 node_1 netRa6 -1788.7911453773331
Lbr6 netRa6 netL6 -9.288691852661547e-07
Rbbr6 netL6 node_3 -189502.36070072762
Cbr6 netL6 node_3 -6.76176980510136e-15

* Branch 7
Rabr7 node_1 netRa7 11.885821800483201
Lbr7 netRa7 netL7 -2.1015359187043693e-07
Rbbr7 netL7 node_3 59116.29010817762
Cbr7 netL7 node_3 -3.012007637178824e-14

* Branch 8
Rabr8 node_1 netRa8 3335.953668381816
Lbr8 netRa8 netL8 8.690878320149047e-07
Rbbr8 netL8 node_3 291037.18684668175
Cbr8 netL8 node_3 7.114719401491171e-15

* Branch 9
Rabr9 node_1 netRa9 6579.922552968877
Lbr9 netRa9 netL9 2.6573717014681144e-06
Rbbr9 netL9 node_3 584749.3750098341
Cbr9 netL9 node_3 1.0476541056609114e-15

* Branch 10
Rabr10 node_1 netRa10 -34.59144426051895
Lbr10 netRa10 netL10 -1.3498312262460776e-07
Rbbr10 netL10 node_3 48157.31901102084
Cbr10 netL10 node_3 -2.0855997213799045e-14

* Branch 11
Rabr11 node_1 netRa11 7827.396757057292
Lbr11 netRa11 netL11 1.8347885647849298e-06
Rbbr11 netL11 node_3 -584843.2906716595
Cbr11 netL11 node_3 8.98252750045755e-16

* Branch 12
Rabr12 node_1 netRa12 -6781.897567663409
Lbr12 netRa12 netL12 -1.5290929209266088e-06
Rbbr12 netL12 node_3 -287408.19319189026
Cbr12 netL12 node_3 -1.0131292073993267e-15

* Branch 13
Rabr13 node_1 netRa13 59.9701192826903
Lbr13 netRa13 netL13 -1.2298707765471878e-07
Rbbr13 netL13 node_3 37413.34697516974
Cbr13 netL13 node_3 -1.2849367139784159e-14

* Branch 14
Rabr14 node_1 netRa14 -5035.97778134579
Lbr14 netRa14 netL14 2.0918960198763186e-06
Rbbr14 netL14 node_3 -548212.8062145475
Cbr14 netL14 node_3 4.793149119023644e-16

* Branch 15
Rabr15 node_1 netRa15 142.82641873182018
Lbr15 netRa15 netL15 -1.0298366446489455e-07
Rbbr15 netL15 node_3 23276.756594582544
Cbr15 netL15 node_3 -9.760385552460548e-15

* Branch 16
Rabr16 node_1 netRa16 -63.710395255729445
Lbr16 netRa16 netL16 -9.061361588028837e-08
Rbbr16 netL16 node_3 170081.79708009417
Cbr16 netL16 node_3 -7.770164931037865e-15

* Branch 17
Rabr17 node_1 netRa17 898883.8338594382
Lbr17 netRa17 netL17 8.810470046977881e-06
Rbbr17 netL17 node_3 1027308.9803957336
Cbr17 netL17 node_3 9.901021727723514e-18

* Branch 18
Rabr18 node_1 netRa18 -629512.4230065384
Lbr18 netRa18 netL18 1.1441369497667659e-06
Rbbr18 netL18 node_3 -632429.5155593145
Cbr18 netL18 node_3 2.628248739564418e-18

* Branch 19
Rabr19 node_1 netRa19 -48.1111895958512
Lbr19 netRa19 netL19 -7.552481628613766e-08
Rbbr19 netL19 node_3 83589.16238449015
Cbr19 netL19 node_3 -6.848970548212594e-15

* Branch 20
Rabr20 node_1 netRa20 -2861.652194572852
Lbr20 netRa20 netL20 1.6833005995102363e-07
Rbbr20 netL20 node_3 -16530.686669686304
Cbr20 netL20 node_3 2.3831664802022267e-15

* Branch 21
Rabr21 node_1 netRa21 -34858.310295246825
Lbr21 netRa21 netL21 -3.091790556596975e-06
Rbbr21 netL21 node_3 -998349.6084962044
Cbr21 netL21 node_3 -1.2318557933879589e-16

* Branch 22
Rabr22 node_1 netRa22 1293.1085315362327
Lbr22 netRa22 netL22 -5.3842812997684395e-08
Rbbr22 netL22 node_3 5042.7531397758985
Cbr22 netL22 node_3 -5.330950097235006e-15

* Branch 23
Rabr23 node_1 netRa23 -152656.43798799804
Lbr23 netRa23 netL23 1.4017305323978582e-06
Rbbr23 netL23 node_3 -191548.59612316336
Cbr23 netL23 node_3 4.536346212358475e-17

* Branch 24
Rabr24 node_1 netRa24 161.09072320203816
Lbr24 netRa24 netL24 -6.65116857724143e-08
Rbbr24 netL24 node_3 41368.918117249916
Cbr24 netL24 node_3 -4.679231699136778e-15

.ends


* Y'14
.subckt yp14 node_1 node_4
* Branch 0
Rabr0 node_1 netRa0 -2239.1457042987895
Lbr0 netRa0 netL0 -1.2542625441914261e-06
Rbbr0 netL0 node_4 2759.4378183652825
Cbr0 netL0 node_4 -3.832449138885801e-14

* Branch 1
Rabr1 node_1 netRa1 53127.656909406636
Lbr1 netRa1 netL1 -7.960534896222015e-06
Rbbr1 netL1 node_4 97899.72804992906
Cbr1 netL1 node_4 -1.456118017788345e-15

* Branch 2
Rabr2 node_1 netRa2 -196667.66480880827
Lbr2 netRa2 netL2 2.7123418756508443e-05
Rbbr2 netL2 node_4 -340684.50650977955
Cbr2 netL2 node_4 3.947872630842864e-16

* Branch 3
Rabr3 node_1 netRa3 -19498.23749175193
Lbr3 netRa3 netL3 3.5588080565180353e-06
Rbbr3 netL3 node_4 -41882.359884363104
Cbr3 netL3 node_4 3.7981358696879935e-15

* Branch 4
Rabr4 node_1 netRa4 1514.2135336943402
Lbr4 netRa4 netL4 -4.737389098657475e-07
Rbbr4 netL4 node_4 4714.788376470156
Cbr4 netL4 node_4 -3.552352940671879e-14

* Branch 5
Rabr5 node_1 netRa5 38275.51666050238
Lbr5 netRa5 netL5 9.981504483989647e-07
Rbbr5 netL5 node_4 42120.183303969396
Cbr5 netL5 node_4 7.825494831203662e-16

* Branch 6
Rabr6 node_1 netRa6 94.72970548410542
Lbr6 netRa6 netL6 2.399950249661017e-06
Rbbr6 netL6 node_4 -342166.2496461066
Cbr6 netL6 node_4 2.6427243944340586e-15

* Branch 7
Rabr7 node_1 netRa7 14671.339288725088
Lbr7 netRa7 netL7 -1.1157441575292214e-05
Rbbr7 netL7 node_4 982982.3256951151
Cbr7 netL7 node_4 -5.589651634195936e-16

* Branch 8
Rabr8 node_1 netRa8 8.78021296119484
Lbr8 netRa8 netL8 -1.767435955445205e-07
Rbbr8 netL8 node_4 8306.790979990998
Cbr8 netL8 node_4 -3.535291524812065e-14

* Branch 9
Rabr9 node_1 netRa9 60775.78694920969
Lbr9 netRa9 netL9 -6.4693953188323424e-06
Rbbr9 netL9 node_4 285194.5148165868
Cbr9 netL9 node_4 -3.424830537871665e-16

* Branch 10
Rabr10 node_1 netRa10 -28880.852413511184
Lbr10 netRa10 netL10 3.5085028653026682e-06
Rbbr10 netL10 node_4 -160388.34959628826
Cbr10 netL10 node_4 6.574374616051664e-16

* Branch 11
Rabr11 node_1 netRa11 -8928984.079137525
Lbr11 netRa11 netL11 1.4626555320084862e-05
Rbbr11 netL11 node_4 -8943569.006327514
Cbr11 netL11 node_4 1.8132679658128031e-19

* Branch 12
Rabr12 node_1 netRa12 -798472.6839694602
Lbr12 netRa12 netL12 -1.2664252602158528e-05
Rbbr12 netL12 node_4 -927113.7610243417
Cbr12 netL12 node_4 -1.7383473920434963e-17

* Branch 13
Rabr13 node_1 netRa13 124955.92168986655
Lbr13 netRa13 netL13 3.376205073285995e-06
Rbbr13 netL13 node_4 185179.1371902112
Cbr13 netL13 node_4 1.524687986396753e-16

* Branch 14
Rabr14 node_1 netRa14 -10471.774250429182
Lbr14 netRa14 netL14 3.5309514441981555e-06
Rbbr14 netL14 node_4 -810009.0236068285
Cbr14 netL14 node_4 2.8289552323598453e-16

* Branch 15
Rabr15 node_1 netRa15 3803.1580656215738
Lbr15 netRa15 netL15 -1.1818339080016357e-06
Rbbr15 netL15 node_4 191289.5692419299
Cbr15 netL15 node_4 -8.387459189170141e-16

* Branch 16
Rabr16 node_1 netRa16 -1246038.2191419695
Lbr16 netRa16 netL16 1.778976021831119e-05
Rbbr16 netL16 node_4 -1599538.3056978947
Cbr16 netL16 node_4 8.743510437949534e-18

* Branch 17
Rabr17 node_1 netRa17 135947.41552386712
Lbr17 netRa17 netL17 2.7341108631828654e-06
Rbbr17 netL17 node_4 221101.47409435574
Cbr17 netL17 node_4 9.829415662028323e-17

* Branch 18
Rabr18 node_1 netRa18 -208.367109446998
Lbr18 netRa18 netL18 -9.892804436877077e-09
Rbbr18 netL18 node_4 291.62991089009
Cbr18 netL18 node_4 -1.1298539937028145e-13

* Branch 19
Rabr19 node_1 netRa19 -1829875.5420123434
Lbr19 netRa19 netL19 -1.910264606072896e-05
Rbbr19 netL19 node_4 -2225464.775006587
Cbr19 netL19 node_4 -4.810556185283772e-18

* Branch 20
Rabr20 node_1 netRa20 406.64074531739436
Lbr20 netRa20 netL20 3.6106518675566133e-07
Rbbr20 netL20 node_4 -102145.8743762264
Cbr20 netL20 node_4 1.3489907888306016e-15

* Branch 21
Rabr21 node_1 netRa21 389.7674255080684
Lbr21 netRa21 netL21 1.390131381158539e-06
Rbbr21 netL21 node_4 -1230032.532153505
Cbr21 netL21 node_4 2.839792057795709e-16

* Branch 22
Rabr22 node_1 netRa22 180721.47029478033
Lbr22 netRa22 netL22 -8.545816432297297e-07
Rbbr22 netL22 node_4 190575.76810292088
Cbr22 netL22 node_4 -2.3356857126737213e-17

* Branch 23
Rabr23 node_1 netRa23 -86882.06570860188
Lbr23 netRa23 netL23 1.1167906054756378e-06
Rbbr23 netL23 node_4 -129347.62012454636
Cbr23 netL23 node_4 9.206493692744433e-17

* Branch 24
Rabr24 node_1 netRa24 -3104.597315228933
Lbr24 netRa24 netL24 7.541127934084467e-07
Rbbr24 netL24 node_4 -354900.5765629499
Cbr24 netL24 node_4 4.1069064420184607e-16

.ends


* Y'22
.subckt yp22 node_2 node_ref
* Branch 0
Rabr0 node_2 netRa0 11899.825265252772
Lbr0 netRa0 netL0 -9.356753175084473e-07
Rbbr0 netL0 node_ref 13371.51886552739
Cbr0 netL0 node_ref -3.1214041157076246e-15

* Branch 1
Rabr1 node_2 netRa1 39.410438209014245
Lbr1 netRa1 netL1 1.6829328214043804e-07
Rbbr1 netL1 node_ref -62101.76240435409
Cbr1 netL1 node_ref 1.507029892054777e-13

* Branch 2
Rabr2 node_2 netRa2 1447.465878698852
Lbr2 netRa2 netL2 2.1286086783522134e-06
Rbbr2 netL2 node_ref 170940.65683528795
Cbr2 netL2 node_ref 1.1799340166528538e-14

* Branch 3
Rabr3 node_2 netRa3 52.96358985937849
Lbr3 netRa3 netL3 2.3756893828328224e-07
Rbbr3 netL3 node_ref -16016.796911076586
Cbr3 netL3 node_ref 1.0680958130973997e-13

* Branch 4
Rabr4 node_2 netRa4 444.02672863761546
Lbr4 netRa4 netL4 -9.307934027228115e-07
Rbbr4 netL4 node_ref 11991.715934747876
Cbr4 netL4 node_ref -2.5647783533200213e-14

* Branch 5
Rabr5 node_2 netRa5 -961.6778464599976
Lbr5 netRa5 netL5 -2.839810058012946e-07
Rbbr5 netL5 node_ref 6219.403466592227
Cbr5 netL5 node_ref -3.479294558753787e-14

* Branch 6
Rabr6 node_2 netRa6 131.67641569906064
Lbr6 netRa6 netL6 1.3527198042711046e-07
Rbbr6 netL6 node_ref -123947.46349023197
Cbr6 netL6 node_ref 4.6923151832585305e-14

* Branch 7
Rabr7 node_2 netRa7 648.6499415440188
Lbr7 netRa7 netL7 6.248483896422913e-07
Rbbr7 netL7 node_ref 185804.3439410934
Cbr7 netL7 node_ref 1.0096870063408314e-14

* Branch 8
Rabr8 node_2 netRa8 -54.312065335111036
Lbr8 netRa8 netL8 1.273217480437132e-07
Rbbr8 netL8 node_ref -5436.302254769953
Cbr8 netL8 node_ref 4.863679184043468e-14

* Branch 9
Rabr9 node_2 netRa9 256.8755078000526
Lbr9 netRa9 netL9 1.0111010946674652e-07
Rbbr9 netL9 node_ref 21420.004785970323
Cbr9 netL9 node_ref 2.7513800898914305e-14

* Branch 10
Rabr10 node_2 netRa10 -96.78774742946035
Lbr10 netRa10 netL10 8.69053636178253e-08
Rbbr10 netL10 node_ref -13155.528186824262
Cbr10 netL10 node_ref 3.2132536383149157e-14

* Branch 11
Rabr11 node_2 netRa11 568.2519704353991
Lbr11 netRa11 netL11 6.869624343323127e-08
Rbbr11 netL11 node_ref 20660.37709175002
Cbr11 netL11 node_ref 2.3023178744148987e-14

* Branch 12
Rabr12 node_2 netRa12 -346012.5996379677
Lbr12 netRa12 netL12 1.2647856928448895e-05
Rbbr12 netL12 node_ref -627116.0644147012
Cbr12 netL12 node_ref 5.623035468198689e-17

* Branch 13
Rabr13 node_2 netRa13 171.66755662529042
Lbr13 netRa13 netL13 1.1391824172612303e-07
Rbbr13 netL13 node_ref -840742.5868701027
Cbr13 netL13 node_ref 1.3897391978642377e-14

* Branch 14
Rabr14 node_2 netRa14 -3727.4410407487835
Lbr14 netRa14 netL14 8.673251250411329e-07
Rbbr14 netL14 node_ref -154197.3410183908
Cbr14 netL14 node_ref 1.1385701551398566e-15

* Branch 15
Rabr15 node_2 netRa15 51.57100437326929
Lbr15 netRa15 netL15 4.768316948630017e-08
Rbbr15 netL15 node_ref -24336.882068985087
Cbr15 netL15 node_ref 2.1255071055575427e-14

* Branch 16
Rabr16 node_2 netRa16 -162.62876919458031
Lbr16 netRa16 netL16 2.2277989771827553e-07
Rbbr16 netL16 node_ref -144711.65136837514
Cbr16 netL16 node_ref 3.1557072496873297e-15

* Branch 17
Rabr17 node_2 netRa17 -235.81936066272684
Lbr17 netRa17 netL17 5.1634021722118955e-08
Rbbr17 netL17 node_ref -9175.902664504918
Cbr17 netL17 node_ref 1.3167002611120543e-14

* Branch 18
Rabr18 node_2 netRa18 784.6159694518238
Lbr18 netRa18 netL18 2.3648446504896518e-08
Rbbr18 netL18 node_ref -1204.8302784032971
Cbr18 netL18 node_ref 4.5520824288647154e-14

* Branch 19
Rabr19 node_2 netRa19 -39660.66888869082
Lbr19 netRa19 netL19 1.6169208527172916e-06
Rbbr19 netL19 node_ref -155878.6703941045
Cbr19 netL19 node_ref 2.3837627595648534e-16

* Branch 20
Rabr20 node_2 netRa20 -2112.4177486860226
Lbr20 netRa20 netL20 3.5242651412254414e-08
Rbbr20 netL20 node_ref -3175.6656682224298
Cbr20 netL20 node_ref 4.608932084347539e-15

* Branch 21
Rabr21 node_2 netRa21 -140.43023077590942
Lbr21 netRa21 netL21 3.451017127801105e-08
Rbbr21 netL21 node_ref -12264.789022399043
Cbr21 netL21 node_ref 1.1304630589227952e-14

* Branch 22
Rabr22 node_2 netRa22 267.00814142301533
Lbr22 netRa22 netL22 1.1204022129089394e-08
Rbbr22 netL22 node_ref 2992.5326184258947
Cbr22 netL22 node_ref 3.137958499286269e-14

* Branch 23
Rabr23 node_2 netRa23 3744.917844311574
Lbr23 netRa23 netL23 7.913075236135758e-08
Rbbr23 netL23 node_ref 9885.577492080047
Cbr23 netL23 node_ref 2.4584158261524104e-15

* Branch 24
Rabr24 node_2 netRa24 -386.9334966930026
Lbr24 netRa24 netL24 7.203164757615866e-08
Rbbr24 netL24 node_ref -28794.309211489526
Cbr24 netL24 node_ref 4.2792538902186915e-15

.ends


* Y'23
.subckt yp23 node_2 node_3
* Branch 0
Rabr0 node_2 netRa0 1878.7434463350305
Lbr0 netRa0 netL0 2.716050062809983e-07
Rbbr0 netL0 node_3 -488.3721211833202
Cbr0 netL0 node_3 4.735538139222589e-13

* Branch 1
Rabr1 node_2 netRa1 -566.1231343658915
Lbr1 netRa1 netL1 -2.716804833250842e-06
Rbbr1 netL1 node_3 807491.0570484446
Cbr1 netL1 node_3 -9.335961622173844e-15

* Branch 2
Rabr2 node_2 netRa2 -2069.9372527546066
Lbr2 netRa2 netL2 1.3193243558644743e-05
Rbbr2 netL2 node_3 -1528967.9830714974
Cbr2 netL2 node_3 1.917373543597776e-15

* Branch 3
Rabr3 node_2 netRa3 -218.54454799741364
Lbr3 netRa3 netL3 -2.950123599858149e-07
Rbbr3 netL3 node_3 174712.49724486456
Cbr3 netL3 node_3 -8.583587399421669e-14

* Branch 4
Rabr4 node_2 netRa4 4139.08671273094
Lbr4 netRa4 netL4 1.3899473954742522e-06
Rbbr4 netL4 node_3 279618.7006991199
Cbr4 netL4 node_3 1.757171981662707e-14

* Branch 5
Rabr5 node_2 netRa5 11274.147604235575
Lbr5 netRa5 netL5 4.5654304835822027e-07
Rbbr5 netL5 node_3 14471.319590007204
Cbr5 netL5 node_3 4.141097995469134e-15

* Branch 6
Rabr6 node_2 netRa6 -525.4267652117371
Lbr6 netRa6 netL6 -4.089103481692751e-07
Rbbr6 netL6 node_3 -462541.00523723563
Cbr6 netL6 node_3 -1.5488600282180154e-14

* Branch 7
Rabr7 node_2 netRa7 -1469.0122301039455
Lbr7 netRa7 netL7 3.1868946971049534e-06
Rbbr7 netL7 node_3 -522551.41504366515
Cbr7 netL7 node_3 1.9810246460219227e-15

* Branch 8
Rabr8 node_2 netRa8 -299.3087830585994
Lbr8 netRa8 netL8 -1.8670181245886195e-07
Rbbr8 netL8 node_3 16733.771832914696
Cbr8 netL8 node_3 -3.410193571116368e-14

* Branch 9
Rabr9 node_2 netRa9 -370.32509095554275
Lbr9 netRa9 netL9 -1.366905632430185e-07
Rbbr9 netL9 node_3 -26393.853060035774
Cbr9 netL9 node_3 -2.0309989302502512e-14

* Branch 10
Rabr10 node_2 netRa10 274977.3206391912
Lbr10 netRa10 netL10 3.941854906433503e-06
Rbbr10 netL10 node_3 295430.9619592617
Cbr10 netL10 node_3 4.9409741450645546e-17

* Branch 11
Rabr11 node_2 netRa11 -2486.205321053006
Lbr11 netRa11 netL11 -1.5684365087315896e-07
Rbbr11 netL11 node_3 -12447.095046843466
Cbr11 netL11 node_3 -8.298007585061867e-15

* Branch 12
Rabr12 node_2 netRa12 -5452.6913894195595
Lbr12 netRa12 netL12 2.0020175950404344e-06
Rbbr12 netL12 node_3 -344237.2962683014
Cbr12 netL12 node_3 7.799510539360693e-16

* Branch 13
Rabr13 node_2 netRa13 2415.6287531707003
Lbr13 netRa13 netL13 -8.194435485853172e-07
Rbbr13 netL13 node_3 116436.90038449822
Cbr13 netL13 node_3 -1.8915338457242704e-15

* Branch 14
Rabr14 node_2 netRa14 81813.31143319391
Lbr14 netRa14 netL14 4.1390597160132915e-06
Rbbr14 netL14 node_3 304489.51800844114
Cbr14 netL14 node_3 1.7880050903045977e-16

* Branch 15
Rabr15 node_2 netRa15 -11012.156875207103
Lbr15 netRa15 netL15 -8.226728389547287e-07
Rbbr15 netL15 node_3 -89444.19016703242
Cbr15 netL15 node_3 -1.0780093756037102e-15

* Branch 16
Rabr16 node_2 netRa16 -48220.181331973385
Lbr16 netRa16 netL16 3.3221669771452705e-06
Rbbr16 netL16 node_3 -343704.42363435996
Cbr16 netL16 node_3 1.8213306441038093e-16

* Branch 17
Rabr17 node_2 netRa17 6118.119679345853
Lbr17 netRa17 netL17 -4.1165967509997705e-07
Rbbr17 netL17 node_3 37883.53771026322
Cbr17 netL17 node_3 -1.4213329593132465e-15

* Branch 18
Rabr18 node_2 netRa18 -3025.0160593983114
Lbr18 netRa18 netL18 -4.1672986399766405e-08
Rbbr18 netL18 node_3 -6043.350887408087
Cbr18 netL18 node_3 -7.813423739879718e-15

* Branch 19
Rabr19 node_2 netRa19 -890084.3429760338
Lbr19 netRa19 netL19 -7.178409940060014e-06
Rbbr19 netL19 node_3 -1004264.521040274
Cbr19 netL19 node_3 -8.18802994266091e-18

* Branch 20
Rabr20 node_2 netRa20 11669.405224452785
Lbr20 netRa20 netL20 1.5572621869285582e-07
Rbbr20 netL20 node_3 16492.567222791473
Cbr20 netL20 node_3 9.110683568887242e-16

* Branch 21
Rabr21 node_2 netRa21 -113.22927861799278
Lbr21 netRa21 netL21 -4.292548459127856e-07
Rbbr21 netL21 node_3 377635.0446639533
Cbr21 netL21 node_3 -9.196440888949792e-16

* Branch 22
Rabr22 node_2 netRa22 214.54090819101035
Lbr22 netRa22 netL22 -2.352671839883079e-08
Rbbr22 netL22 node_3 2947.417406215836
Cbr22 netL22 node_3 -1.5213423934007224e-14

* Branch 23
Rabr23 node_2 netRa23 -3813.341596602461
Lbr23 netRa23 netL23 -1.197308881415041e-07
Rbbr23 netL23 node_3 -18706.122837048504
Cbr23 netL23 node_3 -2.0824447138604757e-15

* Branch 24
Rabr24 node_2 netRa24 210242.27845173224
Lbr24 netRa24 netL24 3.0533218823970747e-06
Rbbr24 netL24 node_3 358057.5301587007
Cbr24 netL24 node_3 4.224358785845284e-17

.ends


* Y'24
.subckt yp24 node_2 node_4
* Branch 0
Rabr0 node_2 netRa0 -2546.267756488449
Lbr0 netRa0 netL0 -2.2912484106604106e-07
Rbbr0 netL0 node_4 64848.82576637552
Cbr0 netL0 node_4 -1.2036286007754727e-13

* Branch 1
Rabr1 node_2 netRa1 -318662.26685069833
Lbr1 netRa1 netL1 2.5842154203584815e-05
Rbbr1 netL1 node_4 -399119.66118222947
Cbr1 netL1 node_4 1.977184759414624e-16

* Branch 2
Rabr2 node_2 netRa2 1275204.6387086713
Lbr2 netRa2 netL2 -9.154214813166323e-05
Rbbr2 netL2 node_4 1531245.9784114202
Cbr2 netL2 node_4 -4.626906175780469e-17

* Branch 3
Rabr3 node_2 netRa3 292594.13263425423
Lbr3 netRa3 netL3 -1.862870878903398e-05
Rbbr3 netL3 node_4 337196.8789510712
Cbr3 netL3 node_4 -1.7958143370246584e-16

* Branch 4
Rabr4 node_2 netRa4 -52648.353751984185
Lbr4 netRa4 netL4 4.771890989131235e-06
Rbbr4 netL4 node_4 -66589.23922603535
Cbr4 netL4 node_4 1.0876400064546627e-15

* Branch 5
Rabr5 node_2 netRa5 -738549.962122701
Lbr5 netRa5 netL5 5.664193708637837e-06
Rbbr5 netL5 node_4 -743332.6527647702
Cbr5 netL5 node_4 9.720539297102382e-18

* Branch 6
Rabr6 node_2 netRa6 -46487.303681485144
Lbr6 netRa6 netL6 -1.1504788611737104e-05
Rbbr6 netL6 node_4 -673167.9518509267
Cbr6 netL6 node_4 -5.130717492637134e-16

* Branch 7
Rabr7 node_2 netRa7 160652.17530993558
Lbr7 netRa7 netL7 4.793586986623393e-05
Rbbr7 netL7 node_4 2820722.5763619384
Cbr7 netL7 node_4 1.245524735315404e-16

* Branch 8
Rabr8 node_2 netRa8 6506.685185255346
Lbr8 netRa8 netL8 2.52016646579372e-06
Rbbr8 netL8 node_4 -514265.1767546822
Cbr8 netL8 node_4 2.5133870405289132e-15

* Branch 9
Rabr9 node_2 netRa9 -105793.83534434467
Lbr9 netRa9 netL9 3.138702498053051e-05